
     RDKit          3D

253257  0  0  0  0  0  0  0  0999 V2000
   44.7100   40.6680   25.6480 N   0  0  0  0  0  0  0  0  0  0  0  0
   45.4300   41.1860   25.1650 H   0  0  0  0  0  0  0  0  0  0  0  0
   44.9720   39.6920   25.6400 H   0  0  0  0  0  0  0  0  0  0  0  0
   44.7000   40.9760   26.6090 H   0  0  0  0  0  0  0  0  0  0  0  0
   43.3590   40.8810   25.0170 C   0  0  2  0  0  0  0  0  0  0  0  0
   42.6480   40.2500   25.5470 H   0  0  0  0  0  0  0  0  0  0  0  0
   43.3500   40.4480   23.5380 C   0  0  0  0  0  0  0  0  0  0  0  0
   44.3000   40.7360   22.8170 O   0  0  0  0  0  0  0  0  0  0  0  0
   42.8740   42.3470   25.1920 C   0  0  2  0  0  0  0  0  0  0  0  0
   43.5260   43.0370   24.6570 H   0  0  0  0  0  0  0  0  0  0  0  0
   42.9380   42.6320   26.5640 O   0  0  0  0  0  0  0  0  0  0  0  0
   42.6530   43.5390   26.6960 H   0  0  0  0  0  0  0  0  0  0  0  0
   41.4190   42.6010   24.7750 C   0  0  0  0  0  0  0  0  0  0  0  0
   41.1430   43.6300   25.0070 H   0  0  0  0  0  0  0  0  0  0  0  0
   40.7390   41.9370   25.3090 H   0  0  0  0  0  0  0  0  0  0  0  0
   41.2890   42.4640   23.7010 H   0  0  0  0  0  0  0  0  0  0  0  0
   42.2930   39.7570   23.0710 N   0  0  0  0  0  0  0  0  0  0  0  0
   41.5160   39.5700   23.6900 H   0  0  0  0  0  0  0  0  0  0  0  0
   42.1390   39.3530   21.6550 C   0  0  2  0  0  0  0  0  0  0  0  0
   43.0790   38.9270   21.3050 H   0  0  0  0  0  0  0  0  0  0  0  0
   41.8260   40.5680   20.7490 C   0  0  0  0  0  0  0  0  0  0  0  0
   40.9800   41.3910   21.0910 O   0  0  0  0  0  0  0  0  0  0  0  0
   41.0260   38.2780   21.5330 C   0  0  0  0  0  0  0  0  0  0  0  0
   40.1080   38.7010   21.9440 H   0  0  0  0  0  0  0  0  0  0  0  0
   40.8360   38.0950   20.4750 H   0  0  0  0  0  0  0  0  0  0  0  0
   41.2860   36.9150   22.2170 C   0  0  0  0  0  0  0  0  0  0  0  0
   41.4910   37.0640   23.2770 H   0  0  0  0  0  0  0  0  0  0  0  0
   40.0410   36.0350   22.0680 C   0  0  0  0  0  0  0  0  0  0  0  0
   39.8090   35.8560   21.0180 H   0  0  0  0  0  0  0  0  0  0  0  0
   40.2010   35.0740   22.5580 H   0  0  0  0  0  0  0  0  0  0  0  0
   39.1820   36.5110   22.5410 H   0  0  0  0  0  0  0  0  0  0  0  0
   42.4580   36.1670   21.5730 C   0  0  0  0  0  0  0  0  0  0  0  0
   42.2930   36.0300   20.5040 H   0  0  0  0  0  0  0  0  0  0  0  0
   42.5730   35.1870   22.0340 H   0  0  0  0  0  0  0  0  0  0  0  0
   43.3890   36.7130   21.7210 H   0  0  0  0  0  0  0  0  0  0  0  0
   42.4650   40.6430   19.5710 N   0  0  0  0  0  0  0  0  0  0  0  0
   43.2070   39.9810   19.3950 H   0  0  0  0  0  0  0  0  0  0  0  0
   42.2410   41.7210   18.5770 C   0  0  2  0  0  0  0  0  0  0  0  0
   42.0870   42.6510   19.1240 H   0  0  0  0  0  0  0  0  0  0  0  0
   40.9820   41.5230   17.7120 C   0  0  0  0  0  0  0  0  0  0  0  0
   40.3500   42.4950   17.3100 O   0  0  0  0  0  0  0  0  0  0  0  0
   43.5310   41.8900   17.7510 C   0  0  0  0  0  0  0  0  0  0  0  0
   43.6670   41.0370   17.0850 H   0  0  0  0  0  0  0  0  0  0  0  0
   44.3700   41.9200   18.4460 H   0  0  0  0  0  0  0  0  0  0  0  0
   43.5310   43.1930   16.9370 C   0  0  0  0  0  0  0  0  0  0  0  0
   42.8240   43.1070   16.1110 H   0  0  0  0  0  0  0  0  0  0  0  0
   43.2200   44.0120   17.5840 H   0  0  0  0  0  0  0  0  0  0  0  0
   44.9280   43.5110   16.3800 C   0  0  0  0  0  0  0  0  0  0  0  0
   45.6320   43.5700   17.2090 H   0  0  0  0  0  0  0  0  0  0  0  0
   45.2430   42.7130   15.7080 H   0  0  0  0  0  0  0  0  0  0  0  0
   44.9070   44.8530   15.6300 C   0  0  0  0  0  0  0  0  0  0  0  0
   44.4800   45.6110   16.2870 H   0  0  0  0  0  0  0  0  0  0  0  0
   44.2490   44.7650   14.7660 H   0  0  0  0  0  0  0  0  0  0  0  0
   46.2720   45.2690   15.2050 N   0  0  0  0  0  0  0  0  0  0  0  0
   46.2450   46.1490   14.7090 H   0  0  0  0  0  0  0  0  0  0  0  0
   46.7040   44.5950   14.5890 H   0  0  0  0  0  0  0  0  0  0  0  0
   46.8870   45.3990   15.9950 H   0  0  0  0  0  0  0  0  0  0  0  0
   40.6050   40.2600   17.4720 N   0  0  0  0  0  0  0  0  0  0  0  0
   41.2090   39.5350   17.8330 H   0  0  0  0  0  0  0  0  0  0  0  0
   39.4710   39.8470   16.6170 C   0  0  2  0  0  0  0  0  0  0  0  0
   38.8350   40.7110   16.4210 H   0  0  0  0  0  0  0  0  0  0  0  0
   38.5670   38.7780   17.2830 C   0  0  0  0  0  0  0  0  0  0  0  0
   38.5140   37.6550   16.7850 O   0  0  0  0  0  0  0  0  0  0  0  0
   40.0200   39.3650   15.2550 C   0  0  0  0  0  0  0  0  0  0  0  0
   40.5330   38.4150   15.4090 H   0  0  0  0  0  0  0  0  0  0  0  0
   39.1800   39.1670   14.5900 H   0  0  0  0  0  0  0  0  0  0  0  0
   40.9800   40.2960   14.5360 C   0  0  0  0  0  0  0  0  0  0  0  0
   40.4940   41.4260   13.8520 C   0  0  0  0  0  0  0  0  0  0  0  0
   39.4380   41.6530   13.8600 H   0  0  0  0  0  0  0  0  0  0  0  0
   42.3580   40.0070   14.5210 C   0  0  0  0  0  0  0  0  0  0  0  0
   42.7360   39.1370   15.0350 H   0  0  0  0  0  0  0  0  0  0  0  0
   41.3850   42.2660   13.1550 C   0  0  0  0  0  0  0  0  0  0  0  0
   41.0180   43.1360   12.6300 H   0  0  0  0  0  0  0  0  0  0  0  0
   43.2510   40.8450   13.8260 C   0  0  0  0  0  0  0  0  0  0  0  0
   44.3060   40.6140   13.8180 H   0  0  0  0  0  0  0  0  0  0  0  0
   42.7650   41.9780   13.1380 C   0  0  0  0  0  0  0  0  0  0  0  0
   43.6190   42.7860   12.4580 O   0  0  0  0  0  0  0  0  0  0  0  0
   44.5150   42.4390   12.4480 H   0  0  0  0  0  0  0  0  0  0  0  0
   37.9030   39.0560   18.4250 N   0  0  0  0  0  0  0  0  0  0  0  0
   36.9440   38.1250   19.0430 C   0  0  2  0  0  0  0  0  0  0  0  0
   37.4070   37.1450   19.1650 H   0  0  0  0  0  0  0  0  0  0  0  0
   35.6640   37.9670   18.1890 C   0  0  0  0  0  0  0  0  0  0  0  0
   35.2420   38.9010   17.5120 O   0  0  0  0  0  0  0  0  0  0  0  0
   36.6670   38.7200   20.4300 C   0  0  0  0  0  0  0  0  0  0  0  0
   35.6810   38.4610   20.8160 H   0  0  0  0  0  0  0  0  0  0  0  0
   37.4400   38.3890   21.1240 H   0  0  0  0  0  0  0  0  0  0  0  0
   36.8090   40.2240   20.1980 C   0  0  0  0  0  0  0  0  0  0  0  0
   37.0590   40.7530   21.1180 H   0  0  0  0  0  0  0  0  0  0  0  0
   35.8910   40.6220   19.7670 H   0  0  0  0  0  0  0  0  0  0  0  0
   37.9370   40.3120   19.1740 C   0  0  0  0  0  0  0  0  0  0  0  0
   38.8910   40.3970   19.6940 H   0  0  0  0  0  0  0  0  0  0  0  0
   37.7820   41.1750   18.5250 H   0  0  0  0  0  0  0  0  0  0  0  0
   35.0470   36.7750   18.2130 N   0  0  0  0  0  0  0  0  0  0  0  0
   35.4310   36.0560   18.8100 H   0  0  0  0  0  0  0  0  0  0  0  0
   33.8960   36.4070   17.3480 C   0  0  2  0  0  0  0  0  0  0  0  0
   33.5010   37.3080   16.8790 H   0  0  0  0  0  0  0  0  0  0  0  0
   32.7250   35.8120   18.1610 C   0  0  0  0  0  0  0  0  0  0  0  0
   32.8980   34.8430   18.8910 O   0  0  0  0  0  0  0  0  0  0  0  0
   34.3970   35.4770   16.2030 C   0  0  2  0  0  0  0  0  0  0  0  0
   34.9950   34.6820   16.6450 H   0  0  0  0  0  0  0  0  0  0  0  0
   35.2910   36.2700   15.2170 C   0  0  0  0  0  0  0  0  0  0  0  0
   36.1040   36.7480   15.7630 H   0  0  0  0  0  0  0  0  0  0  0  0
   34.7040   37.0600   14.7490 H   0  0  0  0  0  0  0  0  0  0  0  0
   33.2390   34.8200   15.4270 C   0  0  0  0  0  0  0  0  0  0  0  0
   32.6460   34.1770   16.0790 H   0  0  0  0  0  0  0  0  0  0  0  0
   32.5900   35.5770   14.9880 H   0  0  0  0  0  0  0  0  0  0  0  0
   33.6100   34.1670   14.6380 H   0  0  0  0  0  0  0  0  0  0  0  0
   35.9460   35.4400   14.1040 C   0  0  0  0  0  0  0  0  0  0  0  0
   36.5170   34.6150   14.5290 H   0  0  0  0  0  0  0  0  0  0  0  0
   36.6130   36.0880   13.5350 H   0  0  0  0  0  0  0  0  0  0  0  0
   35.1930   35.0560   13.4160 H   0  0  0  0  0  0  0  0  0  0  0  0
   31.5140   36.3530   17.9670 N   0  0  0  0  0  0  0  0  0  0  0  0
   31.4580   37.1740   17.3820 H   0  0  0  0  0  0  0  0  0  0  0  0
   30.2330   35.7280   18.3740 C   0  0  2  0  0  0  0  0  0  0  0  0
   30.3540   35.2440   19.3430 H   0  0  0  0  0  0  0  0  0  0  0  0
   29.7640   34.6490   17.3710 C   0  0  0  0  0  0  0  0  0  0  0  0
   30.0830   34.7050   16.1880 O   0  0  0  0  0  0  0  0  0  0  0  0
   29.1340   36.8070   18.5040 C   0  0  0  0  0  0  0  0  0  0  0  0
   29.1540   37.4580   17.6300 H   0  0  0  0  0  0  0  0  0  0  0  0
   28.1670   36.3020   18.5250 H   0  0  0  0  0  0  0  0  0  0  0  0
   29.2380   37.6620   19.7730 C   0  0  0  0  0  0  0  0  0  0  0  0
   30.1220   38.2960   19.6970 H   0  0  0  0  0  0  0  0  0  0  0  0
   29.3720   36.9970   20.6270 H   0  0  0  0  0  0  0  0  0  0  0  0
   27.9670   38.5100   20.0080 C   0  0  0  0  0  0  0  0  0  0  0  0
   28.0910   39.6940   20.3990 O   0  0  0  0  0  0  0  0  0  0  0  0
   26.8420   37.9810   19.8300 O   0  0  0  0  0  0  0  0  0  0  0  0
   28.9220   33.7120   17.8280 N   0  0  0  0  0  0  0  0  0  0  0  0
   28.6730   33.7550   18.8060 H   0  0  0  0  0  0  0  0  0  0  0  0
   26.7910   33.4060   16.6130 C   0  0  0  0  0  0  0  0  0  0  0  0
   26.0500   33.7870   17.5210 O   0  0  0  0  0  0  0  0  0  0  0  0
   26.4530   33.5410   15.3270 N   0  0  0  0  0  0  0  0  0  0  0  0
   27.1110   33.2320   14.6260 H   0  0  0  0  0  0  0  0  0  0  0  0
   25.1290   34.0170   14.8700 C   0  0  0  0  0  0  0  0  0  0  0  0
   25.0650   33.8870   13.7900 H   0  0  0  0  0  0  0  0  0  0  0  0
   24.3560   33.3940   15.3190 H   0  0  0  0  0  0  0  0  0  0  0  0
   24.8330   35.4860   15.2070 C   0  0  0  0  0  0  0  0  0  0  0  0
   23.8860   35.7750   15.9310 O   0  0  0  0  0  0  0  0  0  0  0  0
   25.6800   36.4160   14.7480 N   0  0  0  0  0  0  0  0  0  0  0  0
   26.3940   36.0920   14.1120 H   0  0  0  0  0  0  0  0  0  0  0  0
   25.6000   37.8630   15.0800 C   0  0  2  0  0  0  0  0  0  0  0  0
   25.5270   37.9270   16.1660 H   0  0  0  0  0  0  0  0  0  0  0  0
   24.3250   38.5300   14.5080 C   0  0  0  0  0  0  0  0  0  0  0  0
   23.9090   38.2280   13.3940 O   0  0  0  0  0  0  0  0  0  0  0  0
   26.9250   38.5660   14.6750 C   0  0  2  0  0  0  0  0  0  0  0  0
   27.7420   37.9720   15.0860 H   0  0  0  0  0  0  0  0  0  0  0  0
   27.0400   39.9870   15.2690 C   0  0  0  0  0  0  0  0  0  0  0  0
   26.8160   39.9470   16.3350 H   0  0  0  0  0  0  0  0  0  0  0  0
   26.3180   40.6520   14.7950 H   0  0  0  0  0  0  0  0  0  0  0  0
   27.0930   38.6180   13.1440 C   0  0  0  0  0  0  0  0  0  0  0  0
   26.9150   37.6390   12.6980 H   0  0  0  0  0  0  0  0  0  0  0  0
   28.1030   38.9290   12.8770 H   0  0  0  0  0  0  0  0  0  0  0  0
   26.3940   39.3270   12.6990 H   0  0  0  0  0  0  0  0  0  0  0  0
   28.4340   40.6180   15.1250 C   0  0  0  0  0  0  0  0  0  0  0  0
   29.1910   39.9690   15.5640 H   0  0  0  0  0  0  0  0  0  0  0  0
   28.4480   41.5750   15.6470 H   0  0  0  0  0  0  0  0  0  0  0  0
   28.6670   40.7980   14.0750 H   0  0  0  0  0  0  0  0  0  0  0  0
   23.7130   39.4610   15.2520 N   0  0  0  0  0  0  0  0  0  0  0  0
   24.1290   39.7060   16.1380 H   0  0  0  0  0  0  0  0  0  0  0  0
   22.4950   40.2110   14.8280 C   0  0  2  0  0  0  0  0  0  0  0  0
   21.8530   39.5120   14.2920 H   0  0  0  0  0  0  0  0  0  0  0  0
   22.8500   41.3420   13.8360 C   0  0  0  0  0  0  0  0  0  0  0  0
   23.8790   41.9940   13.9730 O   0  0  0  0  0  0  0  0  0  0  0  0
   21.6960   40.7150   16.0640 C   0  0  0  0  0  0  0  0  0  0  0  0
   22.3180   41.3870   16.6540 H   0  0  0  0  0  0  0  0  0  0  0  0
   20.3890   41.4350   15.6960 C   0  0  0  0  0  0  0  0  0  0  0  0
   19.7320   40.7920   15.1130 H   0  0  0  0  0  0  0  0  0  0  0  0
   19.8550   41.7170   16.6040 H   0  0  0  0  0  0  0  0  0  0  0  0
   20.5850   42.3550   15.1430 H   0  0  0  0  0  0  0  0  0  0  0  0
   21.2950   39.5140   16.9370 C   0  0  0  0  0  0  0  0  0  0  0  0
   20.7070   38.7980   16.3630 H   0  0  0  0  0  0  0  0  0  0  0  0
   22.1740   39.0030   17.3280 H   0  0  0  0  0  0  0  0  0  0  0  0
   20.7000   39.8500   17.7860 H   0  0  0  0  0  0  0  0  0  0  0  0
   21.9950   41.5610   12.8240 N   0  0  0  0  0  0  0  0  0  0  0  0
   21.1510   41.0060   12.7880 H   0  0  0  0  0  0  0  0  0  0  0  0
   22.1540   42.5750   11.7430 C   0  0  2  0  0  0  0  0  0  0  0  0
   22.8110   43.3730   12.0890 H   0  0  0  0  0  0  0  0  0  0  0  0
   20.7960   43.2130   11.3750 C   0  0  0  0  0  0  0  0  0  0  0  0
   19.7550   42.6710   11.7290 O   0  0  0  0  0  0  0  0  0  0  0  0
   22.7800   41.9300   10.4770 C   0  0  2  0  0  0  0  0  0  0  0  0
   22.8520   42.6620    9.6720 H   0  0  0  0  0  0  0  0  0  0  0  0
   21.9880   40.8420   10.0450 O   0  0  0  0  0  0  0  0  0  0  0  0
   21.1500   41.1840    9.7290 H   0  0  0  0  0  0  0  0  0  0  0  0
   24.1600   41.3270   10.6940 C   0  0  0  0  0  0  0  0  0  0  0  0
   24.8720   42.1000   10.9840 H   0  0  0  0  0  0  0  0  0  0  0  0
   24.1300   40.5600   11.4670 H   0  0  0  0  0  0  0  0  0  0  0  0
   24.4920   40.8660    9.7630 H   0  0  0  0  0  0  0  0  0  0  0  0
   20.8000   44.2550   10.5320 N   0  0  0  0  0  0  0  0  0  0  0  0
   21.6710   44.7240   10.3250 H   0  0  0  0  0  0  0  0  0  0  0  0
   19.6170   44.6790    9.7620 C   0  0  2  0  0  0  0  0  0  0  0  0
   18.8170   44.9200   10.4620 H   0  0  0  0  0  0  0  0  0  0  0  0
   19.1110   43.5470    8.8270 C   0  0  0  0  0  0  0  0  0  0  0  0
   19.9040   42.7630    8.3070 O   0  0  0  0  0  0  0  0  0  0  0  0
   20.0120   45.9720    9.0090 C   0  0  0  0  0  0  0  0  0  0  0  0
   20.3910   46.6990    9.7270 H   0  0  0  0  0  0  0  0  0  0  0  0
   20.8180   45.7570    8.3070 H   0  0  0  0  0  0  0  0  0  0  0  0
   18.8680   46.5980    8.2220 C   0  0  0  0  0  0  0  0  0  0  0  0
   18.3710   46.0270    7.2690 O   0  0  0  0  0  0  0  0  0  0  0  0
   18.3890   47.7550    8.6090 N   0  0  0  0  0  0  0  0  0  0  0  0
   17.5830   48.1050    8.1120 H   0  0  0  0  0  0  0  0  0  0  0  0
   18.7800   48.2540    9.3960 H   0  0  0  0  0  0  0  0  0  0  0  0
   17.7940   43.4750    8.5990 N   0  0  0  0  0  0  0  0  0  0  0  0
   17.2020   44.1290    9.0900 H   0  0  0  0  0  0  0  0  0  0  0  0
   17.1170   42.5250    7.6940 C   0  0  2  0  0  0  0  0  0  0  0  0
   17.8190   42.2110    6.9220 H   0  0  0  0  0  0  0  0  0  0  0  0
   15.9250   43.1800    6.9570 C   0  0  0  0  0  0  0  0  0  0  0  0
   14.8650   42.5710    6.8410 O   0  0  0  0  0  0  0  0  0  0  0  0
   16.7200   41.2710    8.4960 C   0  0  0  0  0  0  0  0  0  0  0  0
   15.9690   40.6990    7.9490 H   0  0  0  0  0  0  0  0  0  0  0  0
   16.2650   41.5780    9.4380 H   0  0  0  0  0  0  0  0  0  0  0  0
   17.8280   40.3100    8.7810 C   0  0  0  0  0  0  0  0  0  0  0  0
   18.4620   40.1780    9.9640 C   0  0  0  0  0  0  0  0  0  0  0  0
   18.2420   40.7620   10.8450 H   0  0  0  0  0  0  0  0  0  0  0  0
   18.4110   39.3060    7.8960 C   0  0  0  0  0  0  0  0  0  0  0  0
   19.3870   39.1530    9.8770 N   0  0  0  0  0  0  0  0  0  0  0  0
   19.9190   38.8310   10.6740 H   0  0  0  0  0  0  0  0  0  0  0  0
   19.4000   38.5860    8.6220 C   0  0  0  0  0  0  0  0  0  0  0  0
   18.1710   38.9010    6.5670 C   0  0  0  0  0  0  0  0  0  0  0  0
   17.4090   39.4070    5.9920 H   0  0  0  0  0  0  0  0  0  0  0  0
   20.1260   37.5310    8.0550 C   0  0  0  0  0  0  0  0  0  0  0  0
   20.8790   37.0150    8.6330 H   0  0  0  0  0  0  0  0  0  0  0  0
   18.8850   37.8340    5.9900 C   0  0  0  0  0  0  0  0  0  0  0  0
   18.6720   37.5300    4.9760 H   0  0  0  0  0  0  0  0  0  0  0  0
   19.8620   37.1500    6.7300 C   0  0  0  0  0  0  0  0  0  0  0  0
   20.3990   36.3300    6.2750 H   0  0  0  0  0  0  0  0  0  0  0  0
   16.0600   44.4290    6.5050 N   0  0  0  0  0  0  0  0  0  0  0  0
   16.9430   44.8980    6.6500 H   0  0  0  0  0  0  0  0  0  0  0  0
   15.0160   45.1920    5.7830 C   0  0  2  0  0  0  0  0  0  0  0  0
   14.0780   45.0870    6.3280 H   0  0  0  0  0  0  0  0  0  0  0  0
   14.7220   44.6900    4.3600 C   0  0  0  0  0  0  0  0  0  0  0  0
   15.6470   44.5770    3.5280 O   0  0  0  0  0  0  0  0  0  0  0  0
   15.3540   46.6940    5.7860 C   0  0  0  0  0  0  0  0  0  0  0  0
   14.5990   47.2080    5.1900 H   0  0  0  0  0  0  0  0  0  0  0  0
   16.3160   46.8320    5.2930 H   0  0  0  0  0  0  0  0  0  0  0  0
   15.3940   47.3610    7.1790 C   0  0  0  0  0  0  0  0  0  0  0  0
   14.7790   46.8470    8.1470 O   0  0  0  0  0  0  0  0  0  0  0  0
   16.0080   48.4510    7.3010 O   0  0  0  0  0  0  0  0  0  0  0  0
   13.5360   44.3710    4.1020 O   0  0  0  0  0  0  0  0  0  0  0  0
   28.1560   32.7860   16.9650 C   0  0  2  0  0  0  0  0  0  0  0  0
   27.8158   31.5409   17.7498 C   0  0  2  0  0  0  0  0  0  0  0  0
   27.0816   30.6232   16.8484 C   0  0  0  0  0  0  0  0  0  0  0  0
   25.7424   30.2752   16.8502 C   0  0  0  0  0  0  0  0  0  0  0  0
   25.5006   29.4143   15.8595 N   0  0  0  0  0  0  0  0  0  0  0  0
   24.2066   28.8295   15.5526 C   0  0  2  0  0  0  0  0  0  0  0  0
   26.6648   29.2065   15.2243 C   0  0  0  0  0  0  0  0  0  0  0  0
   27.6295   29.9370   15.8188 N   0  0  0  0  0  0  0  0  0  0  0  0
   28.6655   32.5935   16.0218 H   0  0  0  0  0  0  0  0  0  0  0  0
   27.1028   31.8342   18.5537 H   0  0  0  0  0  0  0  0  0  0  0  0
   28.7033   31.0603   18.1758 H   0  0  0  0  0  0  0  0  0  0  0  0
   25.0195   30.6625   17.5651 H   0  0  0  0  0  0  0  0  0  0  0  0
   24.1374   28.6279   14.4828 H   0  0  0  0  0  0  0  0  0  0  0  0
   23.3868   29.5131   15.8726 H   0  0  0  0  0  0  0  0  0  0  0  0
   24.0910   27.8754   16.1269 H   0  0  0  0  0  0  0  0  0  0  0  0
   26.7813   28.5451   14.3654 H   0  0  0  0  0  0  0  0  0  0  0  0
  2  1  1  0
  3  1  1  0
  4  1  1  0
  5  1  1  0
  5  6  1  1
  7  5  1  0
  8  7  2  0
  9  5  1  0
  9 10  1  6
 11  9  1  0
 12 11  1  0
 13  9  1  0
 14 13  1  0
 15 13  1  0
 16 13  1  0
 17  7  1  0
 18 17  1  0
 19 17  1  0
 19 20  1  6
 21 19  1  0
 22 21  2  0
 23 19  1  0
 24 23  1  0
 25 23  1  0
 26 23  1  0
 27 26  1  0
 28 26  1  0
 29 28  1  0
 30 28  1  0
 31 28  1  0
 32 26  1  0
 33 32  1  0
 34 32  1  0
 35 32  1  0
 36 21  1  0
 37 36  1  0
 38 36  1  0
 38 39  1  1
 40 38  1  0
 41 40  2  0
 42 38  1  0
 43 42  1  0
 44 42  1  0
 45 42  1  0
 46 45  1  0
 47 45  1  0
 48 45  1  0
 49 48  1  0
 50 48  1  0
 51 48  1  0
 52 51  1  0
 53 51  1  0
 54 51  1  0
 55 54  1  0
 56 54  1  0
 57 54  1  0
 58 40  1  0
 59 58  1  0
 60 58  1  0
 60 61  1  6
 62 60  1  0
 63 62  2  0
 64 60  1  0
 65 64  1  0
 66 64  1  0
 67 64  1  0
 68 67  2  0
 69 68  1  0
 70 67  1  0
 71 70  1  0
 72 68  1  0
 73 72  1  0
 74 70  2  0
 75 74  1  0
 76 74  1  0
 76 72  2  0
 77 76  1  0
 78 77  1  0
 79 62  1  0
 80 79  1  0
 80 81  1  1
 82 80  1  0
 83 82  2  0
 84 80  1  0
 85 84  1  0
 86 84  1  0
 87 84  1  0
 88 87  1  0
 89 87  1  0
 90 87  1  0
 90 79  1  0
 91 90  1  0
 92 90  1  0
 93 82  1  0
 94 93  1  0
 95 93  1  0
 95 96  1  6
 97 95  1  0
 98 97  2  0
 99 95  1  0
 99100  1  1
101 99  1  0
102101  1  0
103101  1  0
104 99  1  0
105104  1  0
106104  1  0
107104  1  0
108101  1  0
109108  1  0
110108  1  0
111108  1  0
112 97  1  0
113112  1  0
114112  1  0
114115  1  1
116114  1  0
117116  2  0
118114  1  0
119118  1  0
120118  1  0
121118  1  0
122121  1  0
123121  1  0
124121  1  0
125124  2  0
126124  1  0
127116  1  0
128127  1  0
130129  2  0
131129  1  0
132131  1  0
133131  1  0
134133  1  0
135133  1  0
136133  1  0
137136  2  0
138136  1  0
139138  1  0
140138  1  0
140141  1  1
142140  1  0
143142  2  0
144140  1  0
144145  1  1
146144  1  0
147146  1  0
148146  1  0
149144  1  0
150149  1  0
151149  1  0
152149  1  0
153146  1  0
154153  1  0
155153  1  0
156153  1  0
157142  1  0
158157  1  0
159157  1  0
159160  1  6
161159  1  0
162161  2  0
163159  1  0
164163  1  0
165163  1  0
166165  1  0
167165  1  0
168165  1  0
169163  1  0
170169  1  0
171169  1  0
172169  1  0
173161  1  0
174173  1  0
175173  1  0
175176  1  1
177175  1  0
178177  2  0
179175  1  0
179180  1  6
181179  1  0
182181  1  0
183179  1  0
184183  1  0
185183  1  0
186183  1  0
187177  1  0
188187  1  0
189187  1  0
189190  1  1
191189  1  0
192191  2  0
193189  1  0
194193  1  0
195193  1  0
196193  1  0
197196  2  0
198196  1  0
199198  1  0
200198  1  0
201191  1  0
202201  1  0
203201  1  0
203204  1  6
205203  1  0
206205  2  0
207203  1  0
208207  1  0
209207  1  0
210207  1  0
211210  2  0
212211  1  0
213210  1  0
214211  1  0
215214  1  0
216214  1  0
216213  2  0
217213  1  0
218217  1  0
219216  1  0
220219  1  0
221217  2  0
222221  1  0
223221  1  0
223219  2  0
224223  1  0
225205  1  0
226225  1  0
227225  1  0
227228  1  1
229227  1  0
230229  2  0
231227  1  0
232231  1  0
233231  1  0
234231  1  0
235234  2  0
236234  1  0
237229  1  0
238239  1  0
239240  1  0
240241  2  0
241242  1  0
242243  1  0
242244  1  0
244245  2  0
245240  1  0
238246  1  6
239247  1  1
239248  1  0
241249  1  0
243250  1  6
243251  1  0
243252  1  0
244253  1  0
129238  1  0
127238  1  0
M  CHG  2   1   1  54   1
M  END
