
     RDKit          3D

 28 28  0  0  0  0  0  0  0  0999 V2000
   29.9774   34.3592   17.0898 C   0  0  0  0  0  0  0  0  0  0  0  0
   28.9220   33.7120   17.8280 N   0  0  0  0  0  0  0  0  0  0  0  0
   28.1560   32.7860   16.9650 C   0  0  1  0  0  0  0  0  0  0  0  0
   27.9330   31.4757   17.6517 C   0  0  0  0  0  0  0  0  0  0  0  0
   26.7855   30.7735   17.0025 C   0  0  0  0  0  0  0  0  0  0  0  0
   26.7626   29.5004   16.4671 C   0  0  0  0  0  0  0  0  0  0  0  0
   25.5339   29.2566   15.9827 N   0  0  0  0  0  0  0  0  0  0  0  0
   25.0295   28.0646   15.3309 C   0  0  0  0  0  0  0  0  0  0  0  0
   24.7742   30.3440   16.1970 C   0  0  0  0  0  0  0  0  0  0  0  0
   25.5446   31.2542   16.8149 N   0  0  0  0  0  0  0  0  0  0  0  0
   26.7910   33.4060   16.6130 C   0  0  0  0  0  0  0  0  0  0  0  0
   26.0500   33.7870   17.5210 O   0  0  0  0  0  0  0  0  0  0  0  0
   26.3511   33.5541   15.2212 C   0  0  0  0  0  0  0  0  0  0  0  0
   29.7288   35.4441   17.0171 H   0  0  0  0  0  0  0  0  0  0  0  0
   30.1580   33.8960   16.1071 H   0  0  0  0  0  0  0  0  0  0  0  0
   30.9244   34.3200   17.6856 H   0  0  0  0  0  0  0  0  0  0  0  0
   29.3500   33.1142   18.5825 H   0  0  0  0  0  0  0  0  0  0  0  0
   28.6755   32.6431   16.0003 H   0  0  0  0  0  0  0  0  0  0  0  0
   27.7627   31.6024   18.7422 H   0  0  0  0  0  0  0  0  0  0  0  0
   28.8235   30.8223   17.5369 H   0  0  0  0  0  0  0  0  0  0  0  0
   27.5949   28.8240   16.4461 H   0  0  0  0  0  0  0  0  0  0  0  0
   23.9260   27.9722   15.4956 H   0  0  0  0  0  0  0  0  0  0  0  0
   25.4744   27.1416   15.7249 H   0  0  0  0  0  0  0  0  0  0  0  0
   25.1721   28.1888   14.2416 H   0  0  0  0  0  0  0  0  0  0  0  0
   23.7331   30.5000   15.9370 H   0  0  0  0  0  0  0  0  0  0  0  0
   26.6385   34.5793   14.8451 H   0  0  0  0  0  0  0  0  0  0  0  0
   25.2419   33.4978   15.1673 H   0  0  0  0  0  0  0  0  0  0  0  0
   26.8416   32.7795   14.5734 H   0  0  0  0  0  0  0  0  0  0  0  0
  1  2  1  0
  2  3  1  0
  3  4  1  0
  4  5  1  0
  5  6  2  0
  6  7  1  0
  7  8  1  0
  7  9  1  0
  9 10  2  0
  3 11  1  0
 11 12  2  0
 11 13  1  0
 10  5  1  0
  1 14  1  0
  1 15  1  0
  1 16  1  0
  2 17  1  0
  3 18  1  6
  4 19  1  0
  4 20  1  0
  6 21  1  0
  8 22  1  0
  8 23  1  0
  8 24  1  0
  9 25  1  0
 13 26  1  0
 13 27  1  0
 13 28  1  0
M  END
