
     RDKit          3D

 28 28  0  0  0  0  0  0  0  0999 V2000
   29.9174   32.9192   18.5069 C   0  0  0  0  0  0  0  0  0  0  0  0
   28.9220   33.7120   17.8280 N   0  0  0  0  0  0  0  0  0  0  0  0
   28.1560   32.7860   16.9650 C   0  0  1  0  0  0  0  0  0  0  0  0
   27.8602   31.5427   17.7756 C   0  0  0  0  0  0  0  0  0  0  0  0
   26.9714   30.6411   17.0375 C   0  0  0  0  0  0  0  0  0  0  0  0
   26.9051   30.4152   15.6816 C   0  0  0  0  0  0  0  0  0  0  0  0
   25.9498   29.5141   15.4451 N   0  0  0  0  0  0  0  0  0  0  0  0
   25.5240   28.9674   14.1499 C   0  0  0  0  0  0  0  0  0  0  0  0
   25.4102   29.1648   16.6212 C   0  0  0  0  0  0  0  0  0  0  0  0
   26.0345   29.8535   17.5943 N   0  0  0  0  0  0  0  0  0  0  0  0
   26.7910   33.4060   16.6130 C   0  0  0  0  0  0  0  0  0  0  0  0
   26.0500   33.7870   17.5210 O   0  0  0  0  0  0  0  0  0  0  0  0
   26.3713   33.5442   15.2062 C   0  0  0  0  0  0  0  0  0  0  0  0
   30.4620   32.2257   17.8331 H   0  0  0  0  0  0  0  0  0  0  0  0
   30.7103   33.6267   18.8892 H   0  0  0  0  0  0  0  0  0  0  0  0
   29.5116   32.4017   19.4123 H   0  0  0  0  0  0  0  0  0  0  0  0
   28.2864   34.1168   18.5349 H   0  0  0  0  0  0  0  0  0  0  0  0
   28.6655   32.5912   16.0232 H   0  0  0  0  0  0  0  0  0  0  0  0
   27.3361   31.8828   18.7022 H   0  0  0  0  0  0  0  0  0  0  0  0
   28.8062   31.0541   18.0501 H   0  0  0  0  0  0  0  0  0  0  0  0
   27.5281   30.8925   14.9304 H   0  0  0  0  0  0  0  0  0  0  0  0
   24.5075   29.3134   13.8797 H   0  0  0  0  0  0  0  0  0  0  0  0
   26.2206   29.3007   13.3702 H   0  0  0  0  0  0  0  0  0  0  0  0
   25.4707   27.8594   14.1950 H   0  0  0  0  0  0  0  0  0  0  0  0
   24.6027   28.4456   16.7703 H   0  0  0  0  0  0  0  0  0  0  0  0
   27.2335   33.3815   14.5317 H   0  0  0  0  0  0  0  0  0  0  0  0
   25.9859   34.5812   14.9935 H   0  0  0  0  0  0  0  0  0  0  0  0
   25.5130   32.8626   14.9597 H   0  0  0  0  0  0  0  0  0  0  0  0
  1  2  1  0
  2  3  1  0
  3  4  1  0
  4  5  1  0
  5  6  2  0
  6  7  1  0
  7  8  1  0
  7  9  1  0
  9 10  2  0
  3 11  1  0
 11 12  2  0
 11 13  1  0
 10  5  1  0
  1 14  1  0
  1 15  1  0
  1 16  1  0
  2 17  1  0
  3 18  1  6
  4 19  1  0
  4 20  1  0
  6 21  1  0
  8 22  1  0
  8 23  1  0
  8 24  1  0
  9 25  1  0
 13 26  1  0
 13 27  1  0
 13 28  1  0
M  END
