
     RDKit          3D

 28 28  0  0  0  0  0  0  0  0999 V2000
   28.2904   33.8770   19.1096 C   0  0  0  0  0  0  0  0  0  0  0  0
   28.9220   33.7120   17.8280 N   0  0  0  0  0  0  0  0  0  0  0  0
   28.1560   32.7860   16.9650 C   0  0  1  0  0  0  0  0  0  0  0  0
   27.9493   31.4674   17.6669 C   0  0  0  0  0  0  0  0  0  0  0  0
   29.1950   31.2021   18.4563 C   0  0  0  0  0  0  0  0  0  0  0  0
   30.4722   31.6265   18.0786 C   0  0  0  0  0  0  0  0  0  0  0  0
   31.3716   31.2328   18.9929 N   0  0  0  0  0  0  0  0  0  0  0  0
   32.7929   31.5020   18.9189 C   0  0  0  0  0  0  0  0  0  0  0  0
   30.6671   30.5718   19.9288 C   0  0  0  0  0  0  0  0  0  0  0  0
   29.3589   30.5549   19.6036 N   0  0  0  0  0  0  0  0  0  0  0  0
   26.7910   33.4060   16.6130 C   0  0  0  0  0  0  0  0  0  0  0  0
   26.0500   33.7870   17.5210 O   0  0  0  0  0  0  0  0  0  0  0  0
   26.4162   33.5236   15.2171 C   0  0  0  0  0  0  0  0  0  0  0  0
   27.8399   32.9685   19.5181 H   0  0  0  0  0  0  0  0  0  0  0  0
   27.5880   34.7343   19.0691 H   0  0  0  0  0  0  0  0  0  0  0  0
   29.1008   34.1753   19.8312 H   0  0  0  0  0  0  0  0  0  0  0  0
   28.9601   34.6236   17.3402 H   0  0  0  0  0  0  0  0  0  0  0  0
   28.7183   32.6679   16.0417 H   0  0  0  0  0  0  0  0  0  0  0  0
   27.8198   30.6935   16.8712 H   0  0  0  0  0  0  0  0  0  0  0  0
   27.0532   31.4428   18.2923 H   0  0  0  0  0  0  0  0  0  0  0  0
   30.6618   32.1935   17.1637 H   0  0  0  0  0  0  0  0  0  0  0  0
   32.9921   32.5023   18.4366 H   0  0  0  0  0  0  0  0  0  0  0  0
   33.2328   31.5789   19.9455 H   0  0  0  0  0  0  0  0  0  0  0  0
   33.3376   30.7694   18.2921 H   0  0  0  0  0  0  0  0  0  0  0  0
   31.0726   30.1208   20.8071 H   0  0  0  0  0  0  0  0  0  0  0  0
   27.2893   33.5673   14.5327 H   0  0  0  0  0  0  0  0  0  0  0  0
   25.7861   34.4296   15.0243 H   0  0  0  0  0  0  0  0  0  0  0  0
   25.7741   32.6615   14.9075 H   0  0  0  0  0  0  0  0  0  0  0  0
  1  2  1  0
  2  3  1  0
  3  4  1  0
  4  5  1  0
  5  6  2  0
  6  7  1  0
  7  8  1  0
  7  9  1  0
  9 10  2  0
  3 11  1  0
 11 12  2  0
 11 13  1  0
 10  5  1  0
  1 14  1  0
  1 15  1  0
  1 16  1  0
  2 17  1  0
  3 18  1  6
  4 19  1  0
  4 20  1  0
  6 21  1  0
  8 22  1  0
  8 23  1  0
  8 24  1  0
  9 25  1  0
 13 26  1  0
 13 27  1  0
 13 28  1  0
M  END
