
     RDKit          3D

 28 28  0  0  0  0  0  0  0  0999 V2000
   29.1274   33.1699   19.1362 C   0  0  0  0  0  0  0  0  0  0  0  0
   28.9220   33.7120   17.8280 N   0  0  0  0  0  0  0  0  0  0  0  0
   28.1560   32.7860   16.9650 C   0  0  1  0  0  0  0  0  0  0  0  0
   27.8882   31.4956   17.6988 C   0  0  0  0  0  0  0  0  0  0  0  0
   27.6031   30.4472   16.6884 C   0  0  0  0  0  0  0  0  0  0  0  0
   26.3782   29.9587   16.2634 C   0  0  0  0  0  0  0  0  0  0  0  0
   26.5263   29.0176   15.3394 N   0  0  0  0  0  0  0  0  0  0  0  0
   25.4701   28.2802   14.6646 C   0  0  0  0  0  0  0  0  0  0  0  0
   27.8559   28.8842   15.1537 C   0  0  0  0  0  0  0  0  0  0  0  0
   28.5129   29.7381   15.9589 N   0  0  0  0  0  0  0  0  0  0  0  0
   26.7910   33.4060   16.6130 C   0  0  0  0  0  0  0  0  0  0  0  0
   26.0500   33.7870   17.5210 O   0  0  0  0  0  0  0  0  0  0  0  0
   26.3708   33.5446   15.2113 C   0  0  0  0  0  0  0  0  0  0  0  0
   30.0549   32.5487   19.1318 H   0  0  0  0  0  0  0  0  0  0  0  0
   28.2615   32.6709   19.5774 H   0  0  0  0  0  0  0  0  0  0  0  0
   29.3692   34.0337   19.8134 H   0  0  0  0  0  0  0  0  0  0  0  0
   28.3606   34.6097   17.8541 H   0  0  0  0  0  0  0  0  0  0  0  0
   28.6891   32.6430   16.0259 H   0  0  0  0  0  0  0  0  0  0  0  0
   28.7926   31.1986   18.2683 H   0  0  0  0  0  0  0  0  0  0  0  0
   26.9910   31.6081   18.3223 H   0  0  0  0  0  0  0  0  0  0  0  0
   25.4370   30.3344   16.6690 H   0  0  0  0  0  0  0  0  0  0  0  0
   25.0232   27.5314   15.3767 H   0  0  0  0  0  0  0  0  0  0  0  0
   24.6338   28.9306   14.3603 H   0  0  0  0  0  0  0  0  0  0  0  0
   25.8837   27.7457   13.7872 H   0  0  0  0  0  0  0  0  0  0  0  0
   28.2758   28.1760   14.4456 H   0  0  0  0  0  0  0  0  0  0  0  0
   26.7414   34.5070   14.7984 H   0  0  0  0  0  0  0  0  0  0  0  0
   25.2639   33.5046   15.1797 H   0  0  0  0  0  0  0  0  0  0  0  0
   26.7618   32.6715   14.6211 H   0  0  0  0  0  0  0  0  0  0  0  0
  1  2  1  0
  2  3  1  0
  3  4  1  0
  4  5  1  0
  5  6  2  0
  6  7  1  0
  7  8  1  0
  7  9  1  0
  9 10  2  0
  3 11  1  0
 11 12  2  0
 11 13  1  0
 10  5  1  0
  1 14  1  0
  1 15  1  0
  1 16  1  0
  2 17  1  0
  3 18  1  6
  4 19  1  0
  4 20  1  0
  6 21  1  0
  8 22  1  0
  8 23  1  0
  8 24  1  0
  9 25  1  0
 13 26  1  0
 13 27  1  0
 13 28  1  0
M  END
