
     RDKit          3D

 28 28  0  0  0  0  0  0  0  0999 V2000
   30.0397   34.2079   17.0276 C   0  0  0  0  0  0  0  0  0  0  0  0
   28.9220   33.7120   17.8280 N   0  0  0  0  0  0  0  0  0  0  0  0
   28.1560   32.7860   16.9650 C   0  0  1  0  0  0  0  0  0  0  0  0
   27.9090   31.5221   17.7590 C   0  0  0  0  0  0  0  0  0  0  0  0
   28.5903   31.5602   19.0789 C   0  0  0  0  0  0  0  0  0  0  0  0
   28.3324   32.4677   20.0798 C   0  0  0  0  0  0  0  0  0  0  0  0
   29.1377   32.2091   21.1457 N   0  0  0  0  0  0  0  0  0  0  0  0
   29.1599   32.9476   22.3887 C   0  0  0  0  0  0  0  0  0  0  0  0
   29.8760   31.1428   20.7733 C   0  0  0  0  0  0  0  0  0  0  0  0
   29.5485   30.7500   19.5293 N   0  0  0  0  0  0  0  0  0  0  0  0
   26.7910   33.4060   16.6130 C   0  0  0  0  0  0  0  0  0  0  0  0
   26.0500   33.7870   17.5210 O   0  0  0  0  0  0  0  0  0  0  0  0
   26.4150   33.5245   15.2220 C   0  0  0  0  0  0  0  0  0  0  0  0
   30.7568   34.7654   17.6420 H   0  0  0  0  0  0  0  0  0  0  0  0
   29.6409   34.8772   16.2168 H   0  0  0  0  0  0  0  0  0  0  0  0
   30.5177   33.3423   16.5561 H   0  0  0  0  0  0  0  0  0  0  0  0
   28.2926   34.5207   18.0842 H   0  0  0  0  0  0  0  0  0  0  0  0
   28.6770   32.6062   16.0285 H   0  0  0  0  0  0  0  0  0  0  0  0
   28.2712   30.6294   17.1810 H   0  0  0  0  0  0  0  0  0  0  0  0
   26.8308   31.4055   17.9529 H   0  0  0  0  0  0  0  0  0  0  0  0
   27.5977   33.2514   19.9989 H   0  0  0  0  0  0  0  0  0  0  0  0
   30.0816   32.6827   22.9511 H   0  0  0  0  0  0  0  0  0  0  0  0
   28.2406   32.7434   23.0007 H   0  0  0  0  0  0  0  0  0  0  0  0
   29.1797   34.0230   22.1532 H   0  0  0  0  0  0  0  0  0  0  0  0
   30.6177   30.7032   21.4272 H   0  0  0  0  0  0  0  0  0  0  0  0
   27.2678   33.5266   14.5088 H   0  0  0  0  0  0  0  0  0  0  0  0
   25.7029   34.3563   15.0071 H   0  0  0  0  0  0  0  0  0  0  0  0
   25.8317   32.5961   14.9453 H   0  0  0  0  0  0  0  0  0  0  0  0
  1  2  1  0
  2  3  1  0
  3  4  1  0
  4  5  1  0
  5  6  2  0
  6  7  1  0
  7  8  1  0
  7  9  1  0
  9 10  2  0
  3 11  1  0
 11 12  2  0
 11 13  1  0
 10  5  1  0
  1 14  1  0
  1 15  1  0
  1 16  1  0
  2 17  1  0
  3 18  1  6
  4 19  1  0
  4 20  1  0
  6 21  1  0
  8 22  1  0
  8 23  1  0
  8 24  1  0
  9 25  1  0
 13 26  1  0
 13 27  1  0
 13 28  1  0
M  END
