
     RDKit          3D

 28 28  0  0  0  0  0  0  0  0999 V2000
   29.8498   34.4153   16.9605 C   0  0  0  0  0  0  0  0  0  0  0  0
   28.9220   33.7120   17.8280 N   0  0  0  0  0  0  0  0  0  0  0  0
   28.1560   32.7860   16.9650 C   0  0  1  0  0  0  0  0  0  0  0  0
   27.8940   31.5242   17.7541 C   0  0  0  0  0  0  0  0  0  0  0  0
   28.9586   31.4004   18.7865 C   0  0  0  0  0  0  0  0  0  0  0  0
   29.0159   32.0669   20.0036 C   0  0  0  0  0  0  0  0  0  0  0  0
   30.1214   31.6962   20.6578 N   0  0  0  0  0  0  0  0  0  0  0  0
   30.5674   32.1596   21.9796 C   0  0  0  0  0  0  0  0  0  0  0  0
   30.7563   30.8155   19.8808 C   0  0  0  0  0  0  0  0  0  0  0  0
   30.0551   30.6350   18.7488 N   0  0  0  0  0  0  0  0  0  0  0  0
   26.7910   33.4060   16.6130 C   0  0  0  0  0  0  0  0  0  0  0  0
   26.0500   33.7870   17.5210 O   0  0  0  0  0  0  0  0  0  0  0  0
   26.4187   33.5227   15.2211 C   0  0  0  0  0  0  0  0  0  0  0  0
   29.2245   35.0096   16.2563 H   0  0  0  0  0  0  0  0  0  0  0  0
   30.4642   33.6766   16.4244 H   0  0  0  0  0  0  0  0  0  0  0  0
   30.4874   35.0693   17.5904 H   0  0  0  0  0  0  0  0  0  0  0  0
   28.2890   34.4352   18.2297 H   0  0  0  0  0  0  0  0  0  0  0  0
   28.6855   32.6075   16.0320 H   0  0  0  0  0  0  0  0  0  0  0  0
   26.9234   31.6864   18.3064 H   0  0  0  0  0  0  0  0  0  0  0  0
   27.8027   30.6336   17.1297 H   0  0  0  0  0  0  0  0  0  0  0  0
   28.3016   32.7703   20.3816 H   0  0  0  0  0  0  0  0  0  0  0  0
   29.6952   32.1776   22.6719 H   0  0  0  0  0  0  0  0  0  0  0  0
   31.3521   31.4982   22.3552 H   0  0  0  0  0  0  0  0  0  0  0  0
   30.9528   33.2108   21.9192 H   0  0  0  0  0  0  0  0  0  0  0  0
   31.6824   30.3132   20.0977 H   0  0  0  0  0  0  0  0  0  0  0  0
   27.2984   33.5622   14.5267 H   0  0  0  0  0  0  0  0  0  0  0  0
   25.8836   32.5802   14.9229 H   0  0  0  0  0  0  0  0  0  0  0  0
   25.7017   34.3428   15.0057 H   0  0  0  0  0  0  0  0  0  0  0  0
  1  2  1  0
  2  3  1  0
  3  4  1  0
  4  5  1  0
  5  6  2  0
  6  7  1  0
  7  8  1  0
  7  9  1  0
  9 10  2  0
  3 11  1  0
 11 12  2  0
 11 13  1  0
 10  5  1  0
  1 14  1  0
  1 15  1  0
  1 16  1  0
  2 17  1  0
  3 18  1  6
  4 19  1  0
  4 20  1  0
  6 21  1  0
  8 22  1  0
  8 23  1  0
  8 24  1  0
  9 25  1  0
 13 26  1  0
 13 27  1  0
 13 28  1  0
M  END
