
     RDKit          3D

 28 28  0  0  0  0  0  0  0  0999 V2000
   28.8519   35.0570   17.3124 C   0  0  0  0  0  0  0  0  0  0  0  0
   28.9220   33.7120   17.8280 N   0  0  0  0  0  0  0  0  0  0  0  0
   28.1560   32.7860   16.9650 C   0  0  1  0  0  0  0  0  0  0  0  0
   27.9692   31.5268   17.7465 C   0  0  0  0  0  0  0  0  0  0  0  0
   26.7325   30.7874   17.3826 C   0  0  0  0  0  0  0  0  0  0  0  0
   26.3216   30.4241   16.1164 C   0  0  0  0  0  0  0  0  0  0  0  0
   25.1421   29.7654   16.2231 N   0  0  0  0  0  0  0  0  0  0  0  0
   24.3492   29.2033   15.1324 C   0  0  0  0  0  0  0  0  0  0  0  0
   24.8414   29.7293   17.5334 C   0  0  0  0  0  0  0  0  0  0  0  0
   25.7891   30.3393   18.2343 N   0  0  0  0  0  0  0  0  0  0  0  0
   26.7910   33.4060   16.6130 C   0  0  0  0  0  0  0  0  0  0  0  0
   26.0500   33.7870   17.5210 O   0  0  0  0  0  0  0  0  0  0  0  0
   26.3718   33.5438   15.2038 C   0  0  0  0  0  0  0  0  0  0  0  0
   28.9207   35.7702   18.1818 H   0  0  0  0  0  0  0  0  0  0  0  0
   27.9223   35.2150   16.7500 H   0  0  0  0  0  0  0  0  0  0  0  0
   29.7707   35.2349   16.7186 H   0  0  0  0  0  0  0  0  0  0  0  0
   28.4540   33.7217   18.7674 H   0  0  0  0  0  0  0  0  0  0  0  0
   28.6921   32.6555   16.0201 H   0  0  0  0  0  0  0  0  0  0  0  0
   28.8750   30.8843   17.5482 H   0  0  0  0  0  0  0  0  0  0  0  0
   27.9565   31.7462   18.8273 H   0  0  0  0  0  0  0  0  0  0  0  0
   26.8341   30.6169   15.1608 H   0  0  0  0  0  0  0  0  0  0  0  0
   24.1886   29.9295   14.3236 H   0  0  0  0  0  0  0  0  0  0  0  0
   23.3770   28.8928   15.5222 H   0  0  0  0  0  0  0  0  0  0  0  0
   24.8397   28.2800   14.7310 H   0  0  0  0  0  0  0  0  0  0  0  0
   23.9192   29.2422   17.8876 H   0  0  0  0  0  0  0  0  0  0  0  0
   25.3754   33.0659   15.0876 H   0  0  0  0  0  0  0  0  0  0  0  0
   27.1444   33.0810   14.5555 H   0  0  0  0  0  0  0  0  0  0  0  0
   26.2429   34.6120   14.8995 H   0  0  0  0  0  0  0  0  0  0  0  0
  1  2  1  0
  2  3  1  0
  3  4  1  0
  4  5  1  0
  5  6  2  0
  6  7  1  0
  7  8  1  0
  7  9  1  0
  9 10  2  0
  3 11  1  0
 11 12  2  0
 11 13  1  0
 10  5  1  0
  1 14  1  0
  1 15  1  0
  1 16  1  0
  2 17  1  0
  3 18  1  6
  4 19  1  0
  4 20  1  0
  6 21  1  0
  8 22  1  0
  8 23  1  0
  8 24  1  0
  9 25  1  0
 13 26  1  0
 13 27  1  0
 13 28  1  0
M  END
