
     RDKit          3D

 28 28  0  0  0  0  0  0  0  0999 V2000
   28.5363   33.5737   19.2078 C   0  0  0  0  0  0  0  0  0  0  0  0
   28.9220   33.7120   17.8280 N   0  0  0  0  0  0  0  0  0  0  0  0
   28.1560   32.7860   16.9650 C   0  0  1  0  0  0  0  0  0  0  0  0
   27.9509   31.4572   17.6470 C   0  0  0  0  0  0  0  0  0  0  0  0
   29.0287   30.5461   17.1835 C   0  0  0  0  0  0  0  0  0  0  0  0
   30.3755   30.8715   17.1796 C   0  0  0  0  0  0  0  0  0  0  0  0
   31.0927   29.8410   16.7044 N   0  0  0  0  0  0  0  0  0  0  0  0
   32.5321   29.7880   16.5428 C   0  0  0  0  0  0  0  0  0  0  0  0
   30.2258   28.8668   16.4064 C   0  0  0  0  0  0  0  0  0  0  0  0
   28.9683   29.3007   16.7000 N   0  0  0  0  0  0  0  0  0  0  0  0
   26.7910   33.4060   16.6130 C   0  0  0  0  0  0  0  0  0  0  0  0
   26.0500   33.7870   17.5210 O   0  0  0  0  0  0  0  0  0  0  0  0
   26.3969   33.5313   15.1836 C   0  0  0  0  0  0  0  0  0  0  0  0
   28.7243   34.5486   19.7410 H   0  0  0  0  0  0  0  0  0  0  0  0
   29.1878   32.8380   19.7100 H   0  0  0  0  0  0  0  0  0  0  0  0
   27.4554   33.3744   19.3458 H   0  0  0  0  0  0  0  0  0  0  0  0
   28.7273   34.6990   17.5316 H   0  0  0  0  0  0  0  0  0  0  0  0
   28.6964   32.6339   16.0322 H   0  0  0  0  0  0  0  0  0  0  0  0
   27.9935   31.4998   18.7347 H   0  0  0  0  0  0  0  0  0  0  0  0
   26.9647   31.0360   17.3389 H   0  0  0  0  0  0  0  0  0  0  0  0
   30.7704   31.8200   17.5137 H   0  0  0  0  0  0  0  0  0  0  0  0
   32.9757   30.8093   16.5291 H   0  0  0  0  0  0  0  0  0  0  0  0
   32.8107   29.3462   15.5431 H   0  0  0  0  0  0  0  0  0  0  0  0
   33.0280   29.1539   17.2995 H   0  0  0  0  0  0  0  0  0  0  0  0
   30.5323   27.9142   16.0020 H   0  0  0  0  0  0  0  0  0  0  0  0
   25.8140   32.6375   14.8661 H   0  0  0  0  0  0  0  0  0  0  0  0
   25.8553   34.4711   14.9782 H   0  0  0  0  0  0  0  0  0  0  0  0
   27.3253   33.5667   14.5769 H   0  0  0  0  0  0  0  0  0  0  0  0
  1  2  1  0
  2  3  1  0
  3  4  1  0
  4  5  1  0
  5  6  2  0
  6  7  1  0
  7  8  1  0
  7  9  1  0
  9 10  2  0
  3 11  1  0
 11 12  2  0
 11 13  1  0
 10  5  1  0
  1 14  1  0
  1 15  1  0
  1 16  1  0
  2 17  1  0
  3 18  1  6
  4 19  1  0
  4 20  1  0
  6 21  1  0
  8 22  1  0
  8 23  1  0
  8 24  1  0
  9 25  1  0
 13 26  1  0
 13 27  1  0
 13 28  1  0
M  END
