
     RDKit          3D

 28 28  0  0  0  0  0  0  0  0999 V2000
   30.1672   34.0836   17.2176 C   0  0  0  0  0  0  0  0  0  0  0  0
   28.9220   33.7120   17.8280 N   0  0  0  0  0  0  0  0  0  0  0  0
   28.1560   32.7860   16.9650 C   0  0  1  0  0  0  0  0  0  0  0  0
   27.9296   31.4742   17.6826 C   0  0  0  0  0  0  0  0  0  0  0  0
   27.5600   30.4246   16.7214 C   0  0  0  0  0  0  0  0  0  0  0  0
   27.8113   30.3591   15.3669 C   0  0  0  0  0  0  0  0  0  0  0  0
   27.2893   29.2170   14.8861 N   0  0  0  0  0  0  0  0  0  0  0  0
   27.3831   28.8421   13.4775 C   0  0  0  0  0  0  0  0  0  0  0  0
   26.7160   28.5576   15.8920 C   0  0  0  0  0  0  0  0  0  0  0  0
   26.8752   29.2827   17.0094 N   0  0  0  0  0  0  0  0  0  0  0  0
   26.7910   33.4060   16.6130 C   0  0  0  0  0  0  0  0  0  0  0  0
   26.0500   33.7870   17.5210 O   0  0  0  0  0  0  0  0  0  0  0  0
   26.3401   33.5595   15.2265 C   0  0  0  0  0  0  0  0  0  0  0  0
   30.4038   33.4265   16.3531 H   0  0  0  0  0  0  0  0  0  0  0  0
   30.9908   34.0245   17.9651 H   0  0  0  0  0  0  0  0  0  0  0  0
   30.0879   35.1358   16.8881 H   0  0  0  0  0  0  0  0  0  0  0  0
   28.3115   34.5188   18.0577 H   0  0  0  0  0  0  0  0  0  0  0  0
   28.7108   32.6854   16.0321 H   0  0  0  0  0  0  0  0  0  0  0  0
   27.1565   31.5983   18.4527 H   0  0  0  0  0  0  0  0  0  0  0  0
   28.8778   31.2082   18.1855 H   0  0  0  0  0  0  0  0  0  0  0  0
   28.3416   31.1072   14.7925 H   0  0  0  0  0  0  0  0  0  0  0  0
   28.3567   29.1831   13.0663 H   0  0  0  0  0  0  0  0  0  0  0  0
   26.5904   29.4173   12.9288 H   0  0  0  0  0  0  0  0  0  0  0  0
   27.2589   27.7548   13.3310 H   0  0  0  0  0  0  0  0  0  0  0  0
   26.2106   27.5895   15.7813 H   0  0  0  0  0  0  0  0  0  0  0  0
   26.1194   34.6189   15.0314 H   0  0  0  0  0  0  0  0  0  0  0  0
   25.3666   33.0061   15.1302 H   0  0  0  0  0  0  0  0  0  0  0  0
   27.0631   33.1191   14.5125 H   0  0  0  0  0  0  0  0  0  0  0  0
  1  2  1  0
  2  3  1  0
  3  4  1  0
  4  5  1  0
  5  6  2  0
  6  7  1  0
  7  8  1  0
  7  9  1  0
  9 10  2  0
  3 11  1  0
 11 12  2  0
 11 13  1  0
 10  5  1  0
  1 14  1  0
  1 15  1  0
  1 16  1  0
  2 17  1  0
  3 18  1  6
  4 19  1  0
  4 20  1  0
  6 21  1  0
  8 22  1  0
  8 23  1  0
  8 24  1  0
  9 25  1  0
 13 26  1  0
 13 27  1  0
 13 28  1  0
M  END
