
     RDKit          3D

 28 28  0  0  0  0  0  0  0  0999 V2000
   28.5326   33.5748   19.2088 C   0  0  0  0  0  0  0  0  0  0  0  0
   28.9220   33.7120   17.8280 N   0  0  0  0  0  0  0  0  0  0  0  0
   28.1560   32.7860   16.9650 C   0  0  1  0  0  0  0  0  0  0  0  0
   27.9533   31.4570   17.6375 C   0  0  0  0  0  0  0  0  0  0  0  0
   28.6247   30.4259   16.7739 C   0  0  0  0  0  0  0  0  0  0  0  0
   29.6278   29.5446   17.1240 C   0  0  0  0  0  0  0  0  0  0  0  0
   29.9307   28.7977   16.0334 N   0  0  0  0  0  0  0  0  0  0  0  0
   30.9401   27.7340   15.9456 C   0  0  0  0  0  0  0  0  0  0  0  0
   29.1483   29.1836   15.0100 C   0  0  0  0  0  0  0  0  0  0  0  0
   28.3646   30.1706   15.4792 N   0  0  0  0  0  0  0  0  0  0  0  0
   26.7910   33.4060   16.6130 C   0  0  0  0  0  0  0  0  0  0  0  0
   26.0500   33.7870   17.5210 O   0  0  0  0  0  0  0  0  0  0  0  0
   26.3524   33.5534   15.2192 C   0  0  0  0  0  0  0  0  0  0  0  0
   28.6549   34.5779   19.6904 H   0  0  0  0  0  0  0  0  0  0  0  0
   29.1583   32.8808   19.7860 H   0  0  0  0  0  0  0  0  0  0  0  0
   27.4714   33.3073   19.3136 H   0  0  0  0  0  0  0  0  0  0  0  0
   29.9263   33.5252   17.6556 H   0  0  0  0  0  0  0  0  0  0  0  0
   28.6950   32.7196   16.0177 H   0  0  0  0  0  0  0  0  0  0  0  0
   26.8686   31.2153   17.6112 H   0  0  0  0  0  0  0  0  0  0  0  0
   28.3909   31.3811   18.6351 H   0  0  0  0  0  0  0  0  0  0  0  0
   30.0936   29.4558   18.0839 H   0  0  0  0  0  0  0  0  0  0  0  0
   30.4427   26.7902   15.6444 H   0  0  0  0  0  0  0  0  0  0  0  0
   31.6949   27.9773   15.1677 H   0  0  0  0  0  0  0  0  0  0  0  0
   31.4639   27.6753   16.9097 H   0  0  0  0  0  0  0  0  0  0  0  0
   29.1260   28.7964   13.9902 H   0  0  0  0  0  0  0  0  0  0  0  0
   26.7980   32.8086   14.5259 H   0  0  0  0  0  0  0  0  0  0  0  0
   26.5323   34.5575   14.7941 H   0  0  0  0  0  0  0  0  0  0  0  0
   25.2374   33.3903   15.1650 H   0  0  0  0  0  0  0  0  0  0  0  0
  1  2  1  0
  2  3  1  0
  3  4  1  0
  4  5  1  0
  5  6  2  0
  6  7  1  0
  7  8  1  0
  7  9  1  0
  9 10  2  0
  3 11  1  0
 11 12  2  0
 11 13  1  0
 10  5  1  0
  1 14  1  0
  1 15  1  0
  1 16  1  0
  2 17  1  0
  3 18  1  6
  4 19  1  0
  4 20  1  0
  6 21  1  0
  8 22  1  0
  8 23  1  0
  8 24  1  0
  9 25  1  0
 13 26  1  0
 13 27  1  0
 13 28  1  0
M  END
