
     RDKit          3D

 28 28  0  0  0  0  0  0  0  0999 V2000
   28.4654   33.5138   19.1718 C   0  0  0  0  0  0  0  0  0  0  0  0
   28.9220   33.7120   17.8280 N   0  0  0  0  0  0  0  0  0  0  0  0
   28.1560   32.7860   16.9650 C   0  0  1  0  0  0  0  0  0  0  0  0
   27.9418   31.4603   17.6599 C   0  0  0  0  0  0  0  0  0  0  0  0
   28.3684   30.3975   16.7241 C   0  0  0  0  0  0  0  0  0  0  0  0
   27.9179   30.1544   15.4430 C   0  0  0  0  0  0  0  0  0  0  0  0
   28.5630   29.0917   14.9327 N   0  0  0  0  0  0  0  0  0  0  0  0
   28.3603   28.5374   13.6167 C   0  0  0  0  0  0  0  0  0  0  0  0
   29.4186   28.6525   15.8685 C   0  0  0  0  0  0  0  0  0  0  0  0
   29.2934   29.4516   16.9529 N   0  0  0  0  0  0  0  0  0  0  0  0
   26.7910   33.4060   16.6130 C   0  0  0  0  0  0  0  0  0  0  0  0
   26.0500   33.7870   17.5210 O   0  0  0  0  0  0  0  0  0  0  0  0
   26.3795   33.5404   15.2070 C   0  0  0  0  0  0  0  0  0  0  0  0
   27.4613   33.0199   19.2267 H   0  0  0  0  0  0  0  0  0  0  0  0
   29.2356   32.9387   19.7245 H   0  0  0  0  0  0  0  0  0  0  0  0
   28.3433   34.5062   19.6551 H   0  0  0  0  0  0  0  0  0  0  0  0
   29.9200   33.5314   17.6797 H   0  0  0  0  0  0  0  0  0  0  0  0
   28.7156   32.7034   16.0335 H   0  0  0  0  0  0  0  0  0  0  0  0
   28.5000   31.3647   18.5955 H   0  0  0  0  0  0  0  0  0  0  0  0
   26.8642   31.3671   17.9109 H   0  0  0  0  0  0  0  0  0  0  0  0
   27.1539   30.7414   14.9310 H   0  0  0  0  0  0  0  0  0  0  0  0
   27.8211   27.5647   13.6437 H   0  0  0  0  0  0  0  0  0  0  0  0
   29.3442   28.3090   13.1137 H   0  0  0  0  0  0  0  0  0  0  0  0
   27.8295   29.2140   12.9479 H   0  0  0  0  0  0  0  0  0  0  0  0
   30.0942   27.8063   15.7775 H   0  0  0  0  0  0  0  0  0  0  0  0
   25.6884   32.7172   14.8891 H   0  0  0  0  0  0  0  0  0  0  0  0
   27.2855   33.4487   14.5716 H   0  0  0  0  0  0  0  0  0  0  0  0
   25.9036   34.5409   15.0320 H   0  0  0  0  0  0  0  0  0  0  0  0
  1  2  1  0
  2  3  1  0
  3  4  1  0
  4  5  1  0
  5  6  2  0
  6  7  1  0
  7  8  1  0
  7  9  1  0
  9 10  2  0
  3 11  1  0
 11 12  2  0
 11 13  1  0
 10  5  1  0
  1 14  1  0
  1 15  1  0
  1 16  1  0
  2 17  1  0
  3 18  1  6
  4 19  1  0
  4 20  1  0
  6 21  1  0
  8 22  1  0
  8 23  1  0
  8 24  1  0
  9 25  1  0
 13 26  1  0
 13 27  1  0
 13 28  1  0
M  END
