
     RDKit          3D

 28 28  0  0  0  0  0  0  0  0999 V2000
   28.5372   33.5945   19.2026 C   0  0  0  0  0  0  0  0  0  0  0  0
   28.9220   33.7120   17.8280 N   0  0  0  0  0  0  0  0  0  0  0  0
   28.1560   32.7860   16.9650 C   0  0  1  0  0  0  0  0  0  0  0  0
   27.9249   31.4775   17.6556 C   0  0  0  0  0  0  0  0  0  0  0  0
   26.7227   30.8372   17.0117 C   0  0  0  0  0  0  0  0  0  0  0  0
   25.5756   30.3784   17.6250 C   0  0  0  0  0  0  0  0  0  0  0  0
   24.7539   29.8792   16.6866 N   0  0  0  0  0  0  0  0  0  0  0  0
   23.4339   29.2972   16.9565 C   0  0  0  0  0  0  0  0  0  0  0  0
   25.3473   30.0086   15.4986 C   0  0  0  0  0  0  0  0  0  0  0  0
   26.5589   30.5982   15.6987 N   0  0  0  0  0  0  0  0  0  0  0  0
   26.7910   33.4060   16.6130 C   0  0  0  0  0  0  0  0  0  0  0  0
   26.0500   33.7870   17.5210 O   0  0  0  0  0  0  0  0  0  0  0  0
   26.3498   33.5543   15.2106 C   0  0  0  0  0  0  0  0  0  0  0  0
   29.0992   32.7821   19.7447 H   0  0  0  0  0  0  0  0  0  0  0  0
   28.8788   34.5400   19.7129 H   0  0  0  0  0  0  0  0  0  0  0  0
   27.4523   33.5452   19.3752 H   0  0  0  0  0  0  0  0  0  0  0  0
   28.7148   34.6855   17.5066 H   0  0  0  0  0  0  0  0  0  0  0  0
   28.7054   32.7003   16.0125 H   0  0  0  0  0  0  0  0  0  0  0  0
   27.7567   31.6379   18.7193 H   0  0  0  0  0  0  0  0  0  0  0  0
   28.7829   30.8133   17.4343 H   0  0  0  0  0  0  0  0  0  0  0  0
   25.4100   30.4338   18.6947 H   0  0  0  0  0  0  0  0  0  0  0  0
   22.9377   29.9235   17.7313 H   0  0  0  0  0  0  0  0  0  0  0  0
   22.8232   29.3451   16.0347 H   0  0  0  0  0  0  0  0  0  0  0  0
   23.5367   28.2501   17.2772 H   0  0  0  0  0  0  0  0  0  0  0  0
   24.9374   29.6996   14.5465 H   0  0  0  0  0  0  0  0  0  0  0  0
   25.3765   33.0487   15.0383 H   0  0  0  0  0  0  0  0  0  0  0  0
   27.0921   33.0866   14.5313 H   0  0  0  0  0  0  0  0  0  0  0  0
   26.2818   34.6408   14.9161 H   0  0  0  0  0  0  0  0  0  0  0  0
  1  2  1  0
  2  3  1  0
  3  4  1  0
  4  5  1  0
  5  6  2  0
  6  7  1  0
  7  8  1  0
  7  9  1  0
  9 10  2  0
  3 11  1  0
 11 12  2  0
 11 13  1  0
 10  5  1  0
  1 14  1  0
  1 15  1  0
  1 16  1  0
  2 17  1  0
  3 18  1  6
  4 19  1  0
  4 20  1  0
  6 21  1  0
  8 22  1  0
  8 23  1  0
  8 24  1  0
  9 25  1  0
 13 26  1  0
 13 27  1  0
 13 28  1  0
M  END
