
     RDKit          3D

 28 28  0  0  0  0  0  0  0  0999 V2000
   30.3332   33.5042   17.6285 C   0  0  0  0  0  0  0  0  0  0  0  0
   28.9220   33.7120   17.8280 N   0  0  0  0  0  0  0  0  0  0  0  0
   28.1560   32.7860   16.9650 C   0  0  1  0  0  0  0  0  0  0  0  0
   27.9745   31.4515   17.6086 C   0  0  0  0  0  0  0  0  0  0  0  0
   28.3087   30.3882   16.5970 C   0  0  0  0  0  0  0  0  0  0  0  0
   29.3504   30.4359   15.6935 C   0  0  0  0  0  0  0  0  0  0  0  0
   29.3562   29.3167   14.9393 N   0  0  0  0  0  0  0  0  0  0  0  0
   30.3190   29.0141   13.8723 C   0  0  0  0  0  0  0  0  0  0  0  0
   28.3283   28.5771   15.3672 C   0  0  0  0  0  0  0  0  0  0  0  0
   27.6879   29.2232   16.3747 N   0  0  0  0  0  0  0  0  0  0  0  0
   26.7910   33.4060   16.6130 C   0  0  0  0  0  0  0  0  0  0  0  0
   26.0500   33.7870   17.5210 O   0  0  0  0  0  0  0  0  0  0  0  0
   26.3664   33.5466   15.2109 C   0  0  0  0  0  0  0  0  0  0  0  0
   30.8654   34.0988   18.4061 H   0  0  0  0  0  0  0  0  0  0  0  0
   30.5815   32.4324   17.8583 H   0  0  0  0  0  0  0  0  0  0  0  0
   30.6786   33.7953   16.6247 H   0  0  0  0  0  0  0  0  0  0  0  0
   28.7025   33.3894   18.8058 H   0  0  0  0  0  0  0  0  0  0  0  0
   28.7277   32.7474   16.0171 H   0  0  0  0  0  0  0  0  0  0  0  0
   28.5659   31.3174   18.5317 H   0  0  0  0  0  0  0  0  0  0  0  0
   26.9033   31.2984   17.8592 H   0  0  0  0  0  0  0  0  0  0  0  0
   30.0877   31.2233   15.5585 H   0  0  0  0  0  0  0  0  0  0  0  0
   29.8175   28.6311   12.9664 H   0  0  0  0  0  0  0  0  0  0  0  0
   30.7928   29.9862   13.5626 H   0  0  0  0  0  0  0  0  0  0  0  0
   31.1156   28.3444   14.2559 H   0  0  0  0  0  0  0  0  0  0  0  0
   28.0615   27.6131   14.9616 H   0  0  0  0  0  0  0  0  0  0  0  0
   27.2157   33.7298   14.5223 H   0  0  0  0  0  0  0  0  0  0  0  0
   25.7446   34.4871   15.1565 H   0  0  0  0  0  0  0  0  0  0  0  0
   25.7423   32.6674   14.8818 H   0  0  0  0  0  0  0  0  0  0  0  0
  1  2  1  0
  2  3  1  0
  3  4  1  0
  4  5  1  0
  5  6  2  0
  6  7  1  0
  7  8  1  0
  7  9  1  0
  9 10  2  0
  3 11  1  0
 11 12  2  0
 11 13  1  0
 10  5  1  0
  1 14  1  0
  1 15  1  0
  1 16  1  0
  2 17  1  0
  3 18  1  6
  4 19  1  0
  4 20  1  0
  6 21  1  0
  8 22  1  0
  8 23  1  0
  8 24  1  0
  9 25  1  0
 13 26  1  0
 13 27  1  0
 13 28  1  0
M  END
