
     RDKit          3D

 28 28  0  0  0  0  0  0  0  0999 V2000
   29.3576   34.8281   17.0110 C   0  0  0  0  0  0  0  0  0  0  0  0
   28.9220   33.7120   17.8280 N   0  0  0  0  0  0  0  0  0  0  0  0
   28.1560   32.7860   16.9650 C   0  0  1  0  0  0  0  0  0  0  0  0
   27.9403   31.4617   17.6619 C   0  0  0  0  0  0  0  0  0  0  0  0
   28.0436   30.3937   16.6324 C   0  0  0  0  0  0  0  0  0  0  0  0
   27.1162   30.0466   15.6675 C   0  0  0  0  0  0  0  0  0  0  0  0
   27.5693   29.0215   14.9115 N   0  0  0  0  0  0  0  0  0  0  0  0
   26.8781   28.3764   13.7954 C   0  0  0  0  0  0  0  0  0  0  0  0
   28.7830   28.7248   15.4026 C   0  0  0  0  0  0  0  0  0  0  0  0
   29.0839   29.5321   16.4294 N   0  0  0  0  0  0  0  0  0  0  0  0
   26.7910   33.4060   16.6130 C   0  0  0  0  0  0  0  0  0  0  0  0
   26.0500   33.7870   17.5210 O   0  0  0  0  0  0  0  0  0  0  0  0
   26.4069   33.5274   15.2025 C   0  0  0  0  0  0  0  0  0  0  0  0
   28.8134   34.8826   16.0401 H   0  0  0  0  0  0  0  0  0  0  0  0
   30.4330   34.6529   16.7478 H   0  0  0  0  0  0  0  0  0  0  0  0
   29.2209   35.8080   17.5282 H   0  0  0  0  0  0  0  0  0  0  0  0
   28.2273   34.0178   18.5617 H   0  0  0  0  0  0  0  0  0  0  0  0
   28.7173   32.6889   16.0375 H   0  0  0  0  0  0  0  0  0  0  0  0
   26.9204   31.4323   18.0912 H   0  0  0  0  0  0  0  0  0  0  0  0
   28.6905   31.2780   18.4560 H   0  0  0  0  0  0  0  0  0  0  0  0
   26.1384   30.5306   15.5235 H   0  0  0  0  0  0  0  0  0  0  0  0
   26.5758   29.2198   13.1179 H   0  0  0  0  0  0  0  0  0  0  0  0
   25.9500   27.8811   14.1050 H   0  0  0  0  0  0  0  0  0  0  0  0
   27.5940   27.7337   13.2662 H   0  0  0  0  0  0  0  0  0  0  0  0
   29.4304   27.9476   15.0287 H   0  0  0  0  0  0  0  0  0  0  0  0
   26.0647   34.5927   15.0491 H   0  0  0  0  0  0  0  0  0  0  0  0
   27.2598   33.3879   14.5392 H   0  0  0  0  0  0  0  0  0  0  0  0
   25.5481   32.8769   14.9439 H   0  0  0  0  0  0  0  0  0  0  0  0
  1  2  1  0
  2  3  1  0
  3  4  1  0
  4  5  1  0
  5  6  2  0
  6  7  1  0
  7  8  1  0
  7  9  1  0
  9 10  2  0
  3 11  1  0
 11 12  2  0
 11 13  1  0
 10  5  1  0
  1 14  1  0
  1 15  1  0
  1 16  1  0
  2 17  1  0
  3 18  1  6
  4 19  1  0
  4 20  1  0
  6 21  1  0
  8 22  1  0
  8 23  1  0
  8 24  1  0
  9 25  1  0
 13 26  1  0
 13 27  1  0
 13 28  1  0
M  END
